LTspice 24.0.12 for Windows
Circuit: * C:\Users\alex_\Documents\IKP\HYDRA\Test_PCB_MPPC-array_FARICH\HV_MPPC_Ballance\SPICE\LTC6090_prototype.asc
Start Time: Fri Nov 21 11:59:05 2025
solver = Normal
Maximum thread count: 20
tnom = 27
temp = 27
method = modified trap
Direct Newton iteration failed to find .op point.  (Use ".option noopiter" to skip.)
Starting Gmin stepping
Gmin = 10
Gmin = 1.07374
Gmin = 0.115292
Gmin = 0.0123794
Gmin = 0.00132923
Gmin = 0.000142725
Gmin = 1.5325e-05
vernier = 0.5
Gmin = 2.85678e-06
vernier = 0.25
vernier = 0.333333
Gmin = 1.7232e-06
vernier = 0.444444
vernier = 0.592592
Gmin = 5.91931e-07
vernier = 0.790123
Gmin = 1.15494e-07
vernier = 1
Gmin = 1.24011e-08
vernier = 0.5
vernier = 0.25
Gmin = 8.14071e-09
vernier = 0.333333
vernier = 0.444444
Gmin = 3.30415e-09
vernier = 0.592592
vernier = 0.790123
Gmin = 8.14675e-10
vernier = 1
Gmin = 1.03843e-10
Gmin = 1.11501e-11
Gmin = 1.19723e-12
Gmin = 1.28552e-13
Gmin = 0
Gmin stepping succeeded in finding the operating point.

Total elapsed time: 0.350 seconds.

