LTspice 24.0.11 for Windows
Circuit: * C:\Users\alex_\Documents\IKP\HYDRA\FiberDetector\KiCAD\8.0\Test_PCB_MPPC-array_FARICH\UV_LED_Driver\Spice\Draft1.asc
Start Time: Mon Dec  9 10:50:56 2024
solver = Normal
Maximum thread count: 20
tnom = 27
temp = 27
method = modified trap
.OP point found by inspection.
Total elapsed time: 0.080 seconds.

