LTspice 24.0.12 for Windows
Circuit: * C:\Users\alex_\Documents\IKP\HYDRA\Test_PCB_MPPC-array_FARICH\UV_LED_Driver\Spice\Draft2.asc
Start Time: Wed Feb 26 10:43:13 2025
solver = Normal
Maximum thread count: 20
tnom = 27
temp = 27
method = modified trap
WARNING: Specified period is not longer than the sum of Trise, Tfall, and Ton for v1.  Increasing period to 1.02e-05
.OP point found by inspection.
Total elapsed time: 0.162 seconds.

