Stray ".ends" card: .ends uv_c_led
LTspice 24.0.12 for Windows
Circuit: * C:\Users\alex_\Documents\IKP\HYDRA\Test_PCB_MPPC-array_FARICH\UV_LED_Driver\Spice\UV_LED_Driver.asc
Start Time: Fri Jan 10 10:15:54 2025
solver = Normal
Maximum thread count: 20
tnom = 27
temp = 27
method = modified trap
Limiting rise time of source v§gpio_pwm to 2e-07
Limiting fall time of source v§gpio_pwm to 2e-07
Limiting rise time of source v§gpio_pulse to 1e-08
Limiting fall time of source v§gpio_pulse to 1e-08
Direct Newton iteration for .op point succeeded.
Total elapsed time: 41.087 seconds.

