Stray ".ends" card: .ends uv_c_led
LTspice 24.0.11 for Windows
Circuit: * C:\Users\alex_\Documents\IKP\HYDRA\FiberDetector\KiCAD\8.0\Test_PCB_MPPC-array_FARICH\UV_LED_Driver\Spice\UV_LED_Driver.asc
Start Time: Wed Nov  6 18:03:36 2024
Warning: Multiple definitions of model "2scr375p" Type: BJT
Warning: Multiple definitions of model "bc857b" Type: BJT
Warning: Multiple definitions of model "bc847c" Type: BJT
Warning: Multiple definitions of model "bc847b" Type: BJT
solver = Normal
Maximum thread count: 20
tnom = 27
temp = 27
method = modified trap
Limiting rise time of source v§gpio_pwm to 2e-07
Limiting fall time of source v§gpio_pwm to 2e-07
Limiting rise time of source v§gpio_pulse to 1e-08
Limiting fall time of source v§gpio_pulse to 1e-08
Direct Newton iteration for .op point succeeded.
Total elapsed time: 15.241 seconds.

