LTspice 24.0.12 for Windows
Circuit: * C:\Users\alex_\Documents\IKP\HYDRA\Test_PCB_MPPC-array_FARICH\Spice\Draft1.asc
Start Time: Wed Feb 26 10:10:28 2025
solver = Normal
Maximum thread count: 20
tnom = 27
temp = 27
method = modified trap
Direct Newton iteration failed to find .op point.  (Use ".option noopiter" to skip.)
Starting Gmin stepping
Gmin = 10
Gmin = 1.07374
Gmin = 0.115292
Gmin = 0.0123794
Gmin = 0.00132923
Gmin = 0.000142725
Gmin = 1.5325e-05
Gmin = 1.6455e-06
vernier = 0.5
Gmin = 2.7607e-07
vernier = 0.25
vernier = 0.125
vernier = 0.0625
vernier = 0.03125
vernier = 0.015625
vernier = 0.0078125
vernier = 0.00390625
vernier = 0.00195312
vernier = 0.000976562
vernier = 0.000488281
Gmin = 2.7607e-07
Gmin = 0
Gmin stepping succeeded in finding the operating point.

Ignoring empty pin current: Ix(u1:2)
Ignoring empty pin current: Ix(u1:4)
Ignoring empty pin current: Ix(u1:2)
Ignoring empty pin current: Ix(u1:4)
Heightened Def Con from 0.00060685 to 0.00060685
Total elapsed time: 5.899 seconds.

