LTspice 24.0.12 for Windows
Circuit: * C:\Users\alex_\Documents\IKP\HYDRA\Test_PCB_MPPC-array_FARICH\Spice\FARICH_TOT_Simulation_.asc
Start Time: Fri Feb 28 10:11:04 2025
solver = Normal
Maximum thread count: 20



c2: Increased Cpar to 1e-18
c7: Increased Cpar to 5e-18
Direct Newton iteration for .op point succeeded.
.step charge=0.0006



.step charge=0.0007



.step charge=0.0008



.step charge=0.0009



.step charge=0.001



.step charge=0.0011



.step charge=0.0012



.step charge=0.0013



.step charge=0.0014



.step charge=0.0015



.step charge=0.0016



.step charge=0.0017



.step charge=0.0018



.step charge=0.0019



.step charge=0.002



.step charge=0.0021



.step charge=0.0022



.step charge=0.0023



.step charge=0.0024



.step charge=0.0025



.step charge=0.0026



.step charge=0.0027



.step charge=0.0028



.step charge=0.0029



.step charge=0.003



.step charge=0.0031



.step charge=0.0032



.step charge=0.0033



.step charge=0.0034



.step charge=0.0035



.step charge=0.0036



.step charge=0.0037



.step charge=0.0038



.step charge=0.0039



.step charge=0.004



.step charge=0.0041



.step charge=0.0042



.step charge=0.0043



.step charge=0.0044



.step charge=0.0045



.step charge=0.0046



.step charge=0.0047



.step charge=0.0048



.step charge=0.0049
tnom = 27
temp = 27
method = modified trap
.step charge=0.005


Measurement: trise
  step	v(amplifier_out)=1.04
     1	0
     2	0
     3	2.49096e-09
     4	2.79202e-09
     5	2.98353e-09
     6	3.12801e-09
     7	3.24385e-09
     8	3.33986e-09
     9	3.42117e-09
    10	3.49108e-09
    11	3.5519e-09
    12	3.60529e-09
    13	3.6525e-09
    14	3.6945e-09
    15	3.73205e-09
    16	3.76576e-09
    17	3.79613e-09
    18	3.82357e-09
    19	3.84844e-09
    20	3.87101e-09
    21	3.89154e-09
    22	3.91024e-09
    23	3.92729e-09
    24	3.94285e-09
    25	3.95707e-09
    26	3.97005e-09
    27	3.98192e-09
    28	3.99276e-09
    29	4.00266e-09
    30	4.0117e-09
    31	4.01994e-09
    32	4.02745e-09
    33	4.03429e-09
    34	4.04049e-09
    35	4.04612e-09
    36	4.0512e-09
    37	4.05578e-09
    38	4.05989e-09
    39	4.06357e-09
    40	4.06684e-09
    41	4.06974e-09
    42	4.07227e-09
    43	4.07448e-09
    44	4.07638e-09
    45	4.07799e-09

Measurement: tfall
  step	v(amplifier_out)=1.04
     1	0
     2	0
     3	1.86279e-09
     4	1.66932e-09
     5	1.56854e-09
     6	1.50199e-09
     7	1.45533e-09
     8	1.41699e-09
     9	1.38551e-09
    10	1.36123e-09
    11	1.34243e-09
    12	1.32721e-09
    13	1.31429e-09
    14	1.30292e-09
    15	1.29263e-09
    16	1.28314e-09
    17	1.27422e-09
    18	1.26578e-09
    19	1.25773e-09
    20	1.25007e-09
    21	1.24279e-09
    22	1.23589e-09
    23	1.22939e-09
    24	1.22328e-09
    25	1.21756e-09
    26	1.21222e-09
    27	1.20725e-09
    28	1.20264e-09
    29	1.1984e-09
    30	1.19451e-09
    31	1.19091e-09
    32	1.18756e-09
    33	1.18443e-09
    34	1.1815e-09
    35	1.17875e-09
    36	1.17617e-09
    37	1.17372e-09
    38	1.17141e-09
    39	1.16923e-09
    40	1.16712e-09
    41	1.16513e-09
    42	1.16325e-09
    43	1.1614e-09
    44	1.15966e-09
    45	1.15802e-09

Measurement: tot
  step	(-tfall +trise)
     1	0
     2	0
     3	6.28162e-10
     4	1.1227e-09
     5	1.41499e-09
     6	1.62602e-09
     7	1.78852e-09
     8	1.92287e-09
     9	2.03566e-09
    10	2.12985e-09
    11	2.20947e-09
    12	2.27808e-09
    13	2.33821e-09
    14	2.39158e-09
    15	2.43941e-09
    16	2.48262e-09
    17	2.52191e-09
    18	2.5578e-09
    19	2.59071e-09
    20	2.62094e-09
    21	2.64875e-09
    22	2.67435e-09
    23	2.69791e-09
    24	2.71958e-09
    25	2.73951e-09
    26	2.75783e-09
    27	2.77467e-09
    28	2.79012e-09
    29	2.80426e-09
    30	2.8172e-09
    31	2.82904e-09
    32	2.8399e-09
    33	2.84986e-09
    34	2.85899e-09
    35	2.86737e-09
    36	2.87503e-09
    37	2.88206e-09
    38	2.88849e-09
    39	2.89435e-09
    40	2.89973e-09
    41	2.9046e-09
    42	2.90903e-09
    43	2.91308e-09
    44	2.91672e-09
    45	2.91997e-09

Total elapsed time: 1.913 seconds.

