LTspice 24.0.12 for Windows
Circuit: * C:\Users\alex_\Documents\IKP\HYDRA\Test_PCB_MPPC-array_FARICH\Spice\FARICH_TOT_Simulation.asc
Start Time: Wed Feb 19 16:03:47 2025
solver = Normal
Maximum thread count: 20
tnom = 27
temp = 27
method = modified trap
c2: Increased Cpar to 1e-18
c7: Increased Cpar to 1e-18
c12: Increased Cpar to 1e-18
c17: Increased Cpar to 1e-18
Direct Newton iteration for .op point succeeded.

v_max: MAX(v(sipm_out))=1.10349 FROM 0 TO 4e-08
v_min: MIN(v(sipm_out))=1.03413 FROM 0 TO 4e-08
v_pp=4e-08 FROM 0 TO 4e-08

Total elapsed time: 0.180 seconds.

