LTspice 24.0.12 for Windows
Circuit: * C:\Users\alex_\Documents\IKP\HYDRA\Test_PCB_MPPC-array_FARICH\SmallFiber\SiPM_Array_for_VMM3a_Rev-0\spice\HVoltageControl.asc
Start Time: Fri Mar 21 17:48:26 2025
solver = Normal
Maximum thread count: 20
tnom = 27
temp = 27
method = modified trap
Limiting fall time of source v3 to 0.1
Direct Newton iteration for .op point succeeded.
Total elapsed time: 0.174 seconds.

