LTspice 24.0.12 for Windows
Circuit: * C:\Users\alex_\Documents\IKP\HYDRA\Test_PCB_MPPC-array_FARICH\SmallFiber\S13552_64Ch_Adapter_BGA2803\spice\BGA2803\BGA2803_based_amplifier.asc
Start Time: Wed Mar 26 14:47:01 2025
solver = Normal
Maximum thread count: 20
tnom = 27
temp = 27
method = modified trap
WARNING: Node N003 is floating.

Direct Newton iteration for .op point succeeded.
Total elapsed time: 0.205 seconds.

